data_C12Cu3N6O4-H-3-ISIF2-out
_audit_creation_date              2022-10-15
_audit_creation_method            'Materials Studio'
_symmetry_space_group_name_H-M    'PNNM'
_symmetry_Int_Tables_number       58
_symmetry_cell_setting            orthorhombic
loop_
_symmetry_equiv_pos_as_xyz
  x,y,z
  -x,-y,z
  -x+1/2,y+1/2,-z+1/2
  x+1/2,-y+1/2,-z+1/2
  -x,-y,-z
  x,y,-z
  x+1/2,-y+1/2,z+1/2
  -x+1/2,y+1/2,z+1/2
_cell_length_a                    11.4084
_cell_length_b                    15.1587
_cell_length_c                    3.1156
_cell_angle_alpha                 90.0000
_cell_angle_beta                  90.0000
_cell_angle_gamma                 90.0000
loop_
_atom_site_label
_atom_site_type_symbol
_atom_site_fract_x
_atom_site_fract_y
_atom_site_fract_z
_atom_site_U_iso_or_equiv
_atom_site_adp_type
_atom_site_occupancy
H1     H     0.54966   0.16737   0.50000   0.00000  Uiso   1.00
Cu1    Cu    0.00000   0.50000   1.00000   0.00000  Uiso   1.00
Cu3    Cu    0.31681   0.67755   1.00000   0.00000  Uiso   1.00
N1     N     0.42800   0.57467   1.00000   0.00000  Uiso   1.00
N2     N     0.77190   0.76002   1.00000   0.00000  Uiso   1.00
N3     N     0.91322   0.60561   1.00000   0.00000  Uiso   1.00
C1     C     0.74556   0.51508   1.00000   0.00000  Uiso   1.00
C2     C     0.61903   0.50719   1.00000   0.00000  Uiso   1.00
C3     C     0.59367   0.67312   1.00000   0.00000  Uiso   1.00
C4     C     0.72353   0.68192   1.00000   0.00000  Uiso   1.00
C5     C     0.79799   0.60328   1.00000   0.00000  Uiso   1.00
C6     C     0.54533   0.58322   1.00000   0.00000  Uiso   1.00
O1     O     0.52748   0.73878   1.00000   0.00000  Uiso   1.00
O2     O     0.81303   0.44794   1.00000   0.00000  Uiso   1.00
loop_
_geom_bond_atom_site_label_1
_geom_bond_atom_site_label_2
_geom_bond_distance
_geom_bond_site_symmetry_2
_ccdc_geom_bond_type
H1     N3      1.027   3_646 S
Cu1    N3      1.882   1_455 S
Cu1    N3      1.882   2_665 S
Cu1    O2      2.274   1_455 S
Cu1    O2      2.274   2_665 S
Cu3    N1      2.010   .     S
Cu3    N2      1.893   4_466 S
Cu3    N2      1.893   4_467 S
N1     C6      1.345   .     D
N1     C2      1.352   2_665 S
N2     Cu3     1.893   4_566 S
N2     Cu3     1.893   4_567 S
N2     C4      1.306   .     D
N3     H1      1.027   3_656 S
N3     Cu1     1.882   1_655 S
N3     C5      1.315   .     D
C1     C2      1.448   .     S
C1     C5      1.465   .     S
C1     O2      1.276   .     D
C2     N1      1.352   2_665 S
C2     C6      1.427   .     S
C3     C4      1.487   .     S
C3     C6      1.470   .     S
C3     O1      1.249   .     D
C4     C5      1.464   .     S
O2     Cu1     2.274   1_655 S
