data_5K1H-Model_C-gong_e-out
_audit_creation_date              2022-10-13
_audit_creation_method            'Materials Studio'
_symmetry_space_group_name_H-M    'P21/N'
_symmetry_Int_Tables_number       14
_symmetry_cell_setting            monoclinic
loop_
_symmetry_equiv_pos_as_xyz
  x,y,z
  -x+1/2,y+1/2,-z+1/2
  -x,-y,-z
  x+1/2,-y+1/2,z+1/2
_cell_length_a                    6.3497
_cell_length_b                    19.1416
_cell_length_c                    20.8257
_cell_angle_alpha                 90.0000
_cell_angle_beta                  88.3224
_cell_angle_gamma                 90.0000
loop_
_atom_site_label
_atom_site_type_symbol
_atom_site_fract_x
_atom_site_fract_y
_atom_site_fract_z
_atom_site_U_iso_or_equiv
_atom_site_adp_type
_atom_site_occupancy
C3     C     0.64836   0.26411   0.04402   0.00926  Uani   1.00
C5     C     0.53874   0.14230   0.06990   0.00932  Uani   1.00
C4     C     0.51238   0.20679   0.03450   0.01027  Uani   1.00
C1     C     0.85470   0.19223   0.11854   0.00910  Uani   1.00
C6     C     0.70506   0.13592   0.11263   0.00790  Uani   1.00
C2     C     0.82390   0.25630   0.08715   0.00963  Uani   1.00
C8     C     1.14205   0.23609   0.17115   0.00946  Uani   1.00
C7     C     1.11027   0.30149   0.13999   0.00989  Uani   1.00
N4     N     0.35002   0.21222  -0.00575   0.01106  Uani   1.00
N3     N     0.61547   0.32522   0.01350   0.01170  Uani   1.00
C11    C     0.41022   0.03448   0.10374   0.01035  Uani   1.00
C12    C     0.55670   0.03516   0.15424   0.00940  Uani   1.00
C10    C     0.32170   0.27231  -0.03739   0.01091  Uani   1.00
C9     C     0.45618   0.33040  -0.02691   0.01303  Uani   1.00
N5     N     0.70628   0.08385   0.15552   0.00978  Uani   1.00
N6     N     0.39928   0.08981   0.06453   0.01008  Uani   1.00
N1     N     1.01293   0.18303   0.15934   0.00956  Uani   1.00
N2     N     0.95172   0.31054   0.09954   0.00983  Uani   1.00
C17    C     0.53748  -0.00430   0.21684   0.01092  Uani   1.00
C13    C     1.29955   0.21565   0.22233   0.01120  Uani   1.00
C14    C     1.24062   0.36605   0.15195   0.01458  Uani   1.00
C18    C     0.25830  -0.02363   0.08714   0.01061  Uani   1.00
C16    C     0.15617   0.26542  -0.08832   0.01515  Uani   1.00
C15    C     0.42665   0.40055  -0.06051   0.01745  Uani   1.00
O3     O     1.13045   0.42188   0.16365   0.02328  Uani   1.00
O10    O     0.62215   0.01974   0.26522   0.01560  Uani   1.00
O9     O     0.41554  -0.05998   0.21891   0.01780  Uani   1.00
O7     O     0.23865   0.25563  -0.14394   0.02633  Uani   1.00
O2     O     1.49117   0.21223   0.20748   0.01529  Uani   1.00
O11    O     0.06892  -0.00538   0.07985   0.01596  Uani   1.00
O12    O     0.33823  -0.08366   0.07701   0.01647  Uani   1.00
O1     O     1.21114   0.19853   0.27647   0.01561  Uani   1.00
O4     O     1.43655   0.36133   0.14985   0.02358  Uani   1.00
O8     O    -0.03727   0.26374  -0.07233   0.02379  Uani   1.00
O6     O     0.56906   0.44610  -0.05469   0.03304  Uani   1.00
O5     O     0.25989   0.40692  -0.09296   0.03295  Uani   1.00
K37    K    -0.53450   0.60977   0.50419   0.00000  Uiso   1.00
K38    K    -0.85655   0.30578   0.35505   0.00000  Uiso   1.00
K39    K    -0.22651  -0.05613   0.40736   0.00000  Uiso   1.00
K40    K     0.62116  -0.10361   0.63534   0.00000  Uiso   1.00
K41    K     1.31591   0.35504   0.77385   0.00000  Uiso   1.00
H42    H     0.39444  -0.07065   0.26984   0.00000  Uiso   1.00
loop_
_atom_site_aniso_label
_atom_site_aniso_U_11
_atom_site_aniso_U_22
_atom_site_aniso_U_33
_atom_site_aniso_U_12
_atom_site_aniso_U_13
_atom_site_aniso_U_23
C3        0.00391   0.01155   0.01239  -0.00063  -0.00141  -0.00000
C5        0.00502   0.01227   0.01062  -0.00063   0.00070  -0.00240
C4        0.00279   0.01372   0.01416   0.00000   0.00211  -0.00080
C1        0.00837   0.01011   0.00885   0.00063  -0.00070  -0.00088
C6        0.00669   0.00722   0.00973   0.00000   0.00070   0.00128
C2        0.00669   0.01155   0.01062  -0.00127   0.00000  -0.00240
C8        0.00446   0.01155   0.01239   0.00190  -0.00070   0.00080
C7        0.00725   0.01011   0.01239  -0.00063  -0.00141  -0.00080
N4        0.00781   0.01299   0.01239   0.00140  -0.00070   0.00048
N3        0.00948   0.00794   0.01770   0.00095  -0.00056   0.00104
C11       0.00446   0.00794   0.01858   0.00190   0.00070  -0.00080
C12       0.00502   0.01155   0.01150  -0.00063   0.00211   0.00080
C10       0.00725   0.01227   0.01327   0.00127  -0.00141  -0.00080
C9        0.01004   0.00866   0.02035   0.00127   0.00000  -0.00160
N5        0.00614   0.00722   0.01593   0.00032   0.00042   0.00168
N6        0.00725   0.00794   0.01504  -0.00140  -0.00049  -0.00008
N1        0.00614   0.00938   0.01327   0.00019  -0.00246   0.00064
N2        0.00725   0.00722   0.01504  -0.00152  -0.00070  -0.00016
C17       0.00614   0.01083   0.01593  -0.00317  -0.00281  -0.00080
C13       0.00837   0.01299   0.01239   0.00063  -0.00281   0.00000
C14       0.01060   0.01372   0.01947  -0.00317  -0.00141  -0.00240
C18       0.00893   0.01155   0.01150   0.00000  -0.00281   0.00160
C16       0.01116   0.01083   0.02389   0.00254  -0.00773  -0.00160
C15       0.01283   0.01444   0.02566   0.00254  -0.01054  -0.00240
O3        0.00948   0.01732   0.04336  -0.00057  -0.00632  -0.00080
O10       0.00725   0.01732   0.02212   0.00044   0.00126   0.00440
O9        0.00446   0.01877   0.03009   0.00286   0.00098   0.00464
O7        0.00558   0.03465   0.03894   0.00508  -0.00351   0.00080
O2        0.00558   0.02526   0.01504   0.00432  -0.00035   0.00456
O11       0.01116   0.01372   0.02301  -0.00057  -0.00035  -0.00000
O12       0.00948   0.01516   0.02478  -0.00178  -0.00056  -0.00336
O1        0.01060   0.02310   0.01327  -0.00114  -0.00281  -0.00408
O4        0.02008   0.01227   0.03894  -0.00635  -0.01054   0.00240
O8        0.01729   0.02887   0.02566   0.00825  -0.00843  -0.00160
O6        0.02511   0.02310   0.05221   0.00063  -0.02319   0.00320
O5        0.03794   0.00866   0.05398   0.00635  -0.03092  -0.00719
loop_
_geom_bond_atom_site_label_1
_geom_bond_atom_site_label_2
_geom_bond_distance
_geom_bond_site_symmetry_2
_ccdc_geom_bond_type
C3     N3      1.350   .     A
C3     C4      1.414   .     A
C3     C2      1.460   .     A
C5     N6      1.346   .     A
C5     C6      1.406   .     A
C5     C4      1.450   .     A
C4     N4      1.352   .     A
C1     N1      1.346   .     A
C1     C2      1.406   .     A
C1     C6      1.444   .     A
C6     N5      1.339   .     A
C2     N2      1.347   .     A
C8     N1      1.333   .     A
C8     C7      1.427   .     A
C8     C13     1.534   .     S
C7     N2      1.343   .     A
C7     C14     1.512   .     S
N4     C10     1.340   .     A
N3     C9      1.338   .     A
C11    N6      1.340   .     A
C11    C12     1.424   .     A
C11    C18     1.519   .     S
C12    N5      1.332   .     A
C12    C17     1.508   .     S
C10    C9      1.423   .     A
C10    C16     1.521   .     S
C9     C15     1.528   .     S
C17    O9      1.317   .     A
C17    O10     1.244   .     A
C17    H42     1.897   .     S
C13    O1      1.287   .     A
C13    O2      1.248   .     A
C13    K41     3.733   4_554 S
C14    O3      1.296   .     A
C14    O4      1.247   .     A
C14    K40     4.625   4_554 S
C18    O11     1.266   .     A
C18    O12     1.271   .     A
C18    K37     3.057   4_554 S
C16    O8      1.264   .     A
C16    O7      1.271   .     A
C16    K38     3.751   4_554 S
C15    O6      1.265   .     A
C15    O5      1.278   .     A
C15    K39     3.209   4_554 S
K37    C18     3.057   4_455 S
K38    C16     3.751   4_455 S
K39    C15     3.209   4_455 S
K40    C14     4.625   4_455 S
K41    C13     3.733   4_455 S
