data_5K1H-Model_E-out
_audit_creation_date              2022-10-13
_audit_creation_method            'Materials Studio'
_symmetry_space_group_name_H-M    'P21/N'
_symmetry_Int_Tables_number       14
_symmetry_cell_setting            monoclinic
loop_
_symmetry_equiv_pos_as_xyz
  x,y,z
  -x+1/2,y+1/2,-z+1/2
  -x,-y,-z
  x+1/2,-y+1/2,z+1/2
_cell_length_a                    8.5546
_cell_length_b                    22.5458
_cell_length_c                    22.2793
_cell_angle_alpha                 90.0000
_cell_angle_beta                  96.4536
_cell_angle_gamma                 90.0000
loop_
_atom_site_label
_atom_site_type_symbol
_atom_site_fract_x
_atom_site_fract_y
_atom_site_fract_z
_atom_site_U_iso_or_equiv
_atom_site_adp_type
_atom_site_occupancy
C1     C     0.53150   0.30097   0.10467   0.01259  Uani   1.00
C2     C     0.49587   0.19399   0.12697   0.01269  Uani   1.00
C3     C     0.44112   0.24848   0.09702   0.01321  Uani   1.00
C4     C     0.74810   0.24212   0.16225   0.01320  Uani   1.00
C5     C     0.65199   0.18860   0.15456   0.01103  Uani   1.00
C6     C     0.69028   0.29699   0.13686   0.01345  Uani   1.00
C7     C     0.97885   0.28803   0.20338   0.01285  Uani   1.00
C8     C     0.92879   0.34099   0.17139   0.01395  Uani   1.00
N9     N     0.30044   0.24738   0.06333   0.01555  Uani   1.00
N10    N     0.46695   0.35314   0.08397   0.01624  Uani   1.00
C11    C     0.44121   0.09817   0.15572   0.01340  Uani   1.00
C12    C     0.60564   0.08967   0.17251   0.01255  Uani   1.00
C13    C     0.24359   0.29755   0.03704   0.01528  Uani   1.00
C14    C     0.32573   0.35236   0.05123   0.01786  Uani   1.00
N15    N     0.70775   0.13466   0.17385   0.01309  Uani   1.00
N16    N     0.39305   0.14904   0.12981   0.01386  Uani   1.00
N17    N     0.88988   0.23899   0.19557   0.01339  Uani   1.00
N18    N     0.78586   0.34479   0.14052   0.01355  Uani   1.00
C19    C     0.66458   0.02865   0.18816   0.01511  Uani   1.00
C20    C     1.13065   0.27830   0.24553   0.01611  Uani   1.00
C21    C     1.03769   0.39457   0.16932   0.02035  Uani   1.00
C22    C     0.31300   0.05613   0.17312   0.01544  Uani   1.00
C23    C     0.08878   0.28685  -0.00318   0.02172  Uani   1.00
C24    C     0.25021   0.41122   0.02992   0.02538  Uani   1.00
O25    O     1.00242   0.43502   0.13083   0.03099  Uani   1.00
O26    O     0.76529   0.02584   0.23919   0.02071  Uani   1.00
O27    O     0.62370  -0.01537   0.15738   0.02277  Uani   1.00
O28    O    -0.02511   0.27305   0.02583   0.03465  Uani   1.00
O29    O     1.23308   0.24570   0.22498   0.02084  Uani   1.00
O30    O     0.35196   0.02674   0.22177   0.02192  Uani   1.00
O31    O     0.18276   0.05624   0.14085   0.02227  Uani   1.00
O32    O     1.13676   0.29861   0.29923   0.02247  Uani   1.00
O33    O     1.16058   0.39310   0.20776   0.03384  Uani   1.00
O34    O     0.09321   0.28750  -0.05979   0.03453  Uani   1.00
O35    O     0.14836   0.40821  -0.01646   0.04833  Uani   1.00
O36    O     0.28413   0.45933   0.05861   0.05093  Uani   1.00
K37    K    -0.39374   0.76689   0.65384   0.00000  Uiso   1.00
K38    K     0.96782   0.48793   1.01637   0.00000  Uiso   1.00
K39    K    -0.28439   0.50847   0.82477   0.00000  Uiso   1.00
K40    K     0.92209   0.82159   0.88284   0.00000  Uiso   1.00
H41    H     0.28842   0.51657   0.74654   0.00000  Uiso   1.00
K42    K     1.12149   0.41395   0.31899   0.00000  Uiso   1.00
loop_
_atom_site_aniso_label
_atom_site_aniso_U_11
_atom_site_aniso_U_22
_atom_site_aniso_U_33
_atom_site_aniso_U_12
_atom_site_aniso_U_13
_atom_site_aniso_U_23
C1        0.00701   0.01602   0.01401  -0.00100  -0.00200   0.00000
C2        0.00901   0.01702   0.01201  -0.00100   0.00100  -0.00300
C3        0.00500   0.01903   0.01601   0.00000   0.00300  -0.00100
C4        0.01501   0.01402   0.01001   0.00100  -0.00100  -0.00110
C5        0.01201   0.01001   0.01101   0.00000   0.00100   0.00160
C6        0.01201   0.01602   0.01201  -0.00200   0.00000  -0.00300
C7        0.00801   0.01602   0.01401   0.00300  -0.00100   0.00100
C8        0.01301   0.01402   0.01401  -0.00100  -0.00200  -0.00100
N9        0.01401   0.01803   0.01401   0.00220  -0.00100   0.00060
N10       0.01701   0.01102   0.02002   0.00150  -0.00080   0.00130
C11       0.00801   0.01102   0.02102   0.00300   0.00100  -0.00100
C12       0.00901   0.01602   0.01301  -0.00100   0.00300   0.00100
C13       0.01301   0.01702   0.01501   0.00200  -0.00200  -0.00100
C14       0.01801   0.01202   0.02302   0.00200   0.00000  -0.00200
N15       0.01101   0.01001   0.01801   0.00050   0.00060   0.00210
N16       0.01301   0.01102   0.01701  -0.00220  -0.00070  -0.00010
N17       0.01101   0.01302   0.01501   0.00030  -0.00350   0.00080
N18       0.01301   0.01001   0.01701  -0.00240  -0.00100  -0.00020
C19       0.01101   0.01502   0.01801  -0.00501  -0.00400  -0.00100
C20       0.01501   0.01803   0.01401   0.00100  -0.00400  -0.00000
C21       0.01901   0.01903   0.02202  -0.00501  -0.00200  -0.00300
C22       0.01601   0.01602   0.01301   0.00000  -0.00400   0.00200
C23       0.02001   0.01502   0.02702   0.00400  -0.01101  -0.00200
C24       0.02302   0.02003   0.02902   0.00400  -0.01501  -0.00300
O25       0.01701   0.02403   0.04904  -0.00090  -0.00901  -0.00100
O26       0.01301   0.02403   0.02502   0.00070   0.00180   0.00551
O27       0.00801   0.02604   0.03403   0.00450   0.00140   0.00581
O28       0.01001   0.04807   0.04404   0.00801  -0.00500   0.00100
O29       0.01001   0.03505   0.01701   0.00681  -0.00050   0.00571
O30       0.02001   0.01903   0.02602  -0.00090  -0.00050   0.00000
O31       0.01701   0.02103   0.02802  -0.00280  -0.00080  -0.00420
O32       0.01901   0.03205   0.01501  -0.00180  -0.00400  -0.00511
O33       0.03603   0.01702   0.04404  -0.01001  -0.01501   0.00300
O34       0.03102   0.04006   0.02902   0.01301  -0.01201  -0.00200
O35       0.04503   0.03205   0.05905   0.00100  -0.03303   0.00400
O36       0.06805   0.01202   0.06105   0.01001  -0.04403  -0.00901
loop_
_geom_bond_atom_site_label_1
_geom_bond_atom_site_label_2
_geom_bond_distance
_geom_bond_site_symmetry_2
_ccdc_geom_bond_type
C1     N10     1.358   .     S
C1     C3      1.413   .     D
C1     C6      1.466   .     S
C2     N16     1.348   .     D
C2     C5      1.411   .     S
C2     C3      1.451   .     S
C3     N9      1.345   .     S
C4     N17     1.351   .     S
C4     C6      1.426   .     D
C4     C5      1.459   .     S
C5     N15     1.358   .     D
C6     N18     1.350   .     S
C7     N17     1.343   .     D
C7     C8      1.431   .     S
C7     C20     1.530   .     S
C8     N18     1.337   .     D
C8     C21     1.529   .     S
N9     C13     1.340   .     D
N10    C14     1.339   .     D
C11    N16     1.328   .     S
C11    C12     1.427   .     D
C11    C22     1.532   .     S
C12    N15     1.337   .     S
C12    C19     1.493   .     S
C13    C14     1.439   .     S
C13    C23     1.532   .     S
C14    C24     1.528   .     S
C19    O27     1.234   .     D
C19    O26     1.349   .     S
C20    O32     1.277   .     D
C20    O29     1.268   .     S
C21    O25     1.265   .     S
C21    O33     1.280   .     D
C22    O30     1.282   .     S
C22    O31     1.256   .     D
C23    O34     1.266   .     D
C23    O28     1.267   .     S
C24    O35     1.276   .     S
C24    O36     1.276   .     D
O25    K39     2.808   3_666 S
O26    H41     0.986   4_554 S
O28    K40     3.011   3_666 S
O29    K37     2.902   3_666 D
O30    K42     2.718   2_645 S
O35    K38     2.544   3_666 S
K37    O29     2.902   3_666 D
K38    O35     2.544   3_666 S
K39    O25     2.808   3_666 S
K40    O28     3.011   3_666 S
H41    O26     0.986   4_455 S
K42    O30     2.718   2_655 S
