data_5K1H-Model_A-in-out
_audit_creation_date              2022-10-13
_audit_creation_method            'Materials Studio'
_symmetry_space_group_name_H-M    'P21/N'
_symmetry_Int_Tables_number       14
_symmetry_cell_setting            monoclinic
loop_
_symmetry_equiv_pos_as_xyz
  x,y,z
  -x+1/2,y+1/2,-z+1/2
  -x,-y,-z
  x+1/2,-y+1/2,z+1/2
_cell_length_a                    8.5546
_cell_length_b                    22.5458
_cell_length_c                    22.2793
_cell_angle_alpha                 90.0000
_cell_angle_beta                  96.4536
_cell_angle_gamma                 90.0000
loop_
_atom_site_label
_atom_site_type_symbol
_atom_site_fract_x
_atom_site_fract_y
_atom_site_fract_z
_atom_site_U_iso_or_equiv
_atom_site_adp_type
_atom_site_occupancy
C3     C     0.57113   0.27870   0.11393   0.01259  Uani   1.00
C5     C     0.54694   0.16857   0.10695   0.01269  Uani   1.00
C4     C     0.48404   0.22851   0.09037   0.01321  Uani   1.00
C1     C     0.78862   0.21464   0.16290   0.01320  Uani   1.00
C6     C     0.69213   0.16281   0.14512   0.01103  Uani   1.00
C2     C     0.72796   0.27150   0.14717   0.01345  Uani   1.00
C8     C     1.01864   0.25578   0.21064   0.01285  Uani   1.00
C7     C     0.95788   0.31360   0.19469   0.01395  Uani   1.00
N4     N     0.34606   0.23647   0.05527   0.01554  Uani   1.00
N3     N     0.50684   0.33356   0.10821   0.01623  Uani   1.00
C11    C     0.51922   0.06512   0.10959   0.01339  Uani   1.00
C12    C     0.65750   0.06063   0.15297   0.01255  Uani   1.00
C10    C     0.28658   0.29157   0.04644   0.01529  Uani   1.00
C9     C     0.36451   0.34109   0.07724   0.01786  Uani   1.00
N5     N     0.74055   0.10959   0.16819   0.01309  Uani   1.00
N6     N     0.46750   0.11854   0.08906   0.01386  Uani   1.00
N1     N     0.93161   0.20763   0.19555   0.01339  Uani   1.00
N2     N     0.81459   0.32003   0.16481   0.01355  Uani   1.00
C17    C     0.71996   0.00435   0.18831   0.01511  Uani   1.00
C13    C     1.18803   0.24521   0.23899   0.01611  Uani   1.00
C14    C     1.05014   0.37061   0.21174   0.02035  Uani   1.00
C18    C     0.41716   0.01339   0.08185   0.01544  Uani   1.00
C16    C     0.13413   0.29520   0.00298   0.02172  Uani   1.00
C15    C     0.30208   0.40564   0.08059   0.02538  Uani   1.00
O3     O     1.15976   0.36539   0.25467   0.03099  Uani   1.00
O10    O     0.61527  -0.03323   0.20067   0.02071  Uani   1.00
O9     O     0.86440  -0.00060   0.20662   0.02276  Uani   1.00
O7     O     0.00560   0.29083   0.02584   0.03465  Uani   1.00
O2     O     1.28707   0.24909   0.20087   0.02084  Uani   1.00
O11    O     0.39289  -0.03157   0.11897   0.02192  Uani   1.00
O12    O     0.35629   0.01560   0.02963   0.02227  Uani   1.00
O1     O     1.21842   0.23008   0.29433   0.02247  Uani   1.00
O4     O     1.00975   0.41771   0.18227   0.03384  Uani   1.00
O8     O     0.15027   0.29914  -0.05310   0.03454  Uani   1.00
O6     O     0.19873   0.42573   0.03811   0.04833  Uani   1.00
O5     O     0.36039   0.43608   0.12489   0.05093  Uani   1.00
K37    K    -0.51470   0.80886   0.74727   0.00000  Uiso   1.00
K38    K     0.96166   0.49214   1.01671   0.00000  Uiso   1.00
K39    K    -0.31034   0.53672   0.74610   0.00000  Uiso   1.00
K41    K     0.18778   1.07423   0.69039   0.00000  Uiso   1.00
K42    K     1.14512   0.75290   1.08646   0.00000  Uiso   1.00
H40    H    -0.02041   0.53245   0.65638   0.00000  Uiso   1.00
loop_
_atom_site_aniso_label
_atom_site_aniso_U_11
_atom_site_aniso_U_22
_atom_site_aniso_U_33
_atom_site_aniso_U_12
_atom_site_aniso_U_13
_atom_site_aniso_U_23
C3        0.00701   0.01602   0.01401  -0.00100  -0.00200  -0.00000
C5        0.00901   0.01702   0.01201  -0.00100   0.00100  -0.00300
C4        0.00500   0.01903   0.01601   0.00000   0.00300  -0.00100
C1        0.01501   0.01402   0.01001   0.00100  -0.00100  -0.00110
C6        0.01201   0.01001   0.01101   0.00000   0.00100   0.00160
C2        0.01201   0.01602   0.01201  -0.00200   0.00000  -0.00300
C8        0.00801   0.01602   0.01401   0.00300  -0.00100   0.00100
C7        0.01301   0.01402   0.01401  -0.00100  -0.00200  -0.00100
N4        0.01401   0.01803   0.01401   0.00220  -0.00100   0.00060
N3        0.01701   0.01102   0.02002   0.00150  -0.00080   0.00130
C11       0.00801   0.01102   0.02102   0.00300   0.00100  -0.00100
C12       0.00901   0.01602   0.01301  -0.00100   0.00300   0.00100
C10       0.01301   0.01702   0.01501   0.00200  -0.00200  -0.00100
C9        0.01801   0.01202   0.02302   0.00200   0.00000  -0.00200
N5        0.01101   0.01001   0.01801   0.00050   0.00060   0.00210
N6        0.01301   0.01102   0.01701  -0.00220  -0.00070  -0.00010
N1        0.01101   0.01302   0.01501   0.00030  -0.00350   0.00080
N2        0.01301   0.01001   0.01701  -0.00240  -0.00100  -0.00020
C17       0.01101   0.01502   0.01801  -0.00501  -0.00400  -0.00100
C13       0.01501   0.01803   0.01401   0.00100  -0.00400   0.00000
C14       0.01901   0.01903   0.02202  -0.00501  -0.00200  -0.00300
C18       0.01601   0.01602   0.01301   0.00000  -0.00400   0.00200
C16       0.02001   0.01502   0.02702   0.00400  -0.01101  -0.00200
C15       0.02302   0.02003   0.02902   0.00400  -0.01501  -0.00300
O3        0.01701   0.02403   0.04904  -0.00090  -0.00901  -0.00100
O10       0.01301   0.02403   0.02502   0.00070   0.00180   0.00551
O9        0.00801   0.02604   0.03403   0.00450   0.00140   0.00581
O7        0.01001   0.04807   0.04404   0.00801  -0.00500   0.00100
O2        0.01001   0.03505   0.01701   0.00681  -0.00050   0.00571
O11       0.02001   0.01903   0.02602  -0.00090  -0.00050   0.00000
O12       0.01701   0.02103   0.02802  -0.00280  -0.00080  -0.00420
O1        0.01901   0.03205   0.01501  -0.00180  -0.00400  -0.00511
O4        0.03603   0.01702   0.04404  -0.01001  -0.01501   0.00300
O8        0.03102   0.04006   0.02902   0.01301  -0.01201  -0.00200
O6        0.04503   0.03205   0.05905   0.00100  -0.03303   0.00400
O5        0.06805   0.01202   0.06105   0.01001  -0.04403  -0.00901
loop_
_geom_bond_atom_site_label_1
_geom_bond_atom_site_label_2
_geom_bond_distance
_geom_bond_site_symmetry_2
_ccdc_geom_bond_type
C3     N3      1.354   .     S
C3     C4      1.422   .     D
C3     C2      1.467   .     S
C5     N6      1.354   .     D
C5     C6      1.430   .     S
C5     C4      1.486   .     S
C4     N4      1.353   .     S
C1     N1      1.360   .     S
C1     C2      1.412   .     D
C1     C6      1.460   .     S
C6     N5      1.352   .     D
C2     N2      1.355   .     S
C8     N1      1.338   .     D
C8     C7      1.433   .     S
C8     C13     1.533   .     S
C7     N2      1.335   .     D
C7     C14     1.534   .     S
N4     C10     1.349   .     D
N3     C9      1.341   .     D
C11    N6      1.345   .     S
C11    C12     1.444   .     D
C11    C18     1.544   .     S
C12    N5      1.336   .     S
C12    C17     1.556   .     S
C10    C9      1.435   .     S
C10    C16     1.537   .     S
C9     C15     1.555   .     S
C17    O9      1.262   .     D
C17    O10     1.285   .     S
C13    O1      1.277   .     D
C13    O2      1.268   .     S
C14    O3      1.268   .     S
C14    O4      1.275   .     D
C18    O11     1.339   .     S
C18    O12     1.221   .     D
C16    O8      1.276   .     D
C16    O7      1.266   .     S
C15    O6      1.302   .     S
C15    O5      1.258   .     D
O3     K39     2.556   3_666 S
O10    K41     2.944   3_666 S
O7     K42     2.858   3_666 S
O2     K37     2.515   3_666 S
O11    H40     1.052   4_554 S
O6     K38     2.535   3_666 S
K37    O2      2.515   3_666 S
K38    O6      2.535   3_666 S
K39    O3      2.556   3_666 S
K41    O10     2.944   3_666 S
K42    O7      2.858   3_666 S
H40    O11     1.052   4_455 S
