data_5K1H-Model_B-out-out
_audit_creation_date              2022-10-13
_audit_creation_method            'Materials Studio'
_symmetry_space_group_name_H-M    'P21/N'
_symmetry_Int_Tables_number       14
_symmetry_cell_setting            monoclinic
loop_
_symmetry_equiv_pos_as_xyz
  x,y,z
  -x+1/2,y+1/2,-z+1/2
  -x,-y,-z
  x+1/2,-y+1/2,z+1/2
_cell_length_a                    6.3497
_cell_length_b                    19.1416
_cell_length_c                    20.8257
_cell_angle_alpha                 90.0000
_cell_angle_beta                  88.3224
_cell_angle_gamma                 90.0000
loop_
_atom_site_label
_atom_site_type_symbol
_atom_site_fract_x
_atom_site_fract_y
_atom_site_fract_z
_atom_site_U_iso_or_equiv
_atom_site_adp_type
_atom_site_occupancy
C3     C     0.54516   0.26181   0.05090   0.00926  Uani   1.00
C5     C     0.45837   0.13665   0.07245   0.00932  Uani   1.00
C4     C     0.42241   0.20181   0.03762   0.01027  Uani   1.00
C1     C     0.76211   0.19356   0.12523   0.00910  Uani   1.00
C6     C     0.62317   0.13413   0.11691   0.00790  Uani   1.00
C2     C     0.71997   0.25709   0.09466   0.00963  Uani   1.00
C8     C     1.04558   0.24358   0.17663   0.00946  Uani   1.00
C7     C     1.01082   0.30748   0.14298   0.00989  Uani   1.00
N4     N     0.26799   0.20494  -0.00574   0.01106  Uani   1.00
N3     N     0.51081   0.32241   0.02023   0.01170  Uani   1.00
C11    C     0.35774   0.02526   0.10348   0.01035  Uani   1.00
C12    C     0.51084   0.02520   0.15220   0.00940  Uani   1.00
C10    C     0.23557   0.26591  -0.03611   0.01091  Uani   1.00
C9     C     0.36052   0.32551  -0.02325   0.01303  Uani   1.00
N5     N     0.64427   0.07901   0.15622   0.00978  Uani   1.00
N6     N     0.33162   0.08071   0.06511   0.01008  Uani   1.00
N1     N     0.92227   0.18809   0.16596   0.00956  Uani   1.00
N2     N     0.84483   0.31274   0.10452   0.00983  Uani   1.00
C17    C     0.54767  -0.03019   0.20327   0.01092  Uani   1.00
C13    C     1.20880   0.22513   0.22725   0.01120  Uani   1.00
C14    C     1.15171   0.37323   0.14511   0.01458  Uani   1.00
C18    C     0.21012  -0.03506   0.09499   0.01061  Uani   1.00
C16    C     0.07181   0.26218  -0.08757   0.01515  Uani   1.00
C15    C     0.34492   0.39404  -0.06034   0.01745  Uani   1.00
O3     O     1.11865   0.41938   0.10272   0.02328  Uani   1.00
O10    O     0.54678  -0.00798   0.26047   0.01560  Uani   1.00
O9     O     0.59178  -0.09097   0.18303   0.01780  Uani   1.00
O7     O    -0.11928   0.26632  -0.07109   0.02633  Uani   1.00
O2     O     1.40204   0.22408   0.21163   0.01529  Uani   1.00
O11    O     0.14917  -0.04256   0.03411   0.01596  Uani   1.00
O12    O     0.15259  -0.07396   0.13926   0.01647  Uani   1.00
O1     O     1.12487   0.20674   0.28101   0.01561  Uani   1.00
O4     O     1.28965   0.37505   0.18756   0.02358  Uani   1.00
O8     O     0.15265   0.24949  -0.14335   0.02379  Uani   1.00
O6     O     0.49974   0.43575  -0.05610   0.03304  Uani   1.00
O5     O     0.18242   0.40441  -0.09346   0.03295  Uani   1.00
K37    K    -0.22742  -0.05740   0.44409   0.00000  Uiso   1.00
K38    K     0.68600  -0.04784   0.64243   0.00000  Uiso   1.00
K39    K     1.21933   0.36011   0.77863   0.00000  Uiso   1.00
K40    K     0.42357   0.65404   0.73476   0.00000  Uiso   1.00
K41    K    -0.92566   0.30037   0.37036   0.00000  Uiso   1.00
H42    H    -0.46587   0.57735   0.53209   0.00000  Uiso   1.00
loop_
_atom_site_aniso_label
_atom_site_aniso_U_11
_atom_site_aniso_U_22
_atom_site_aniso_U_33
_atom_site_aniso_U_12
_atom_site_aniso_U_13
_atom_site_aniso_U_23
C3        0.00391   0.01155   0.01239  -0.00063  -0.00141  -0.00000
C5        0.00502   0.01227   0.01062  -0.00063   0.00070  -0.00240
C4        0.00279   0.01372   0.01416   0.00000   0.00211  -0.00080
C1        0.00837   0.01011   0.00885   0.00063  -0.00070  -0.00088
C6        0.00669   0.00722   0.00973   0.00000   0.00070   0.00128
C2        0.00669   0.01155   0.01062  -0.00127   0.00000  -0.00240
C8        0.00446   0.01155   0.01239   0.00190  -0.00070   0.00080
C7        0.00725   0.01011   0.01239  -0.00063  -0.00141  -0.00080
N4        0.00781   0.01299   0.01239   0.00140  -0.00070   0.00048
N3        0.00948   0.00794   0.01770   0.00095  -0.00056   0.00104
C11       0.00446   0.00794   0.01858   0.00190   0.00070  -0.00080
C12       0.00502   0.01155   0.01150  -0.00063   0.00211   0.00080
C10       0.00725   0.01227   0.01327   0.00127  -0.00141  -0.00080
C9        0.01004   0.00866   0.02035   0.00127   0.00000  -0.00160
N5        0.00614   0.00722   0.01593   0.00032   0.00042   0.00168
N6        0.00725   0.00794   0.01504  -0.00140  -0.00049  -0.00008
N1        0.00614   0.00938   0.01327   0.00019  -0.00246   0.00064
N2        0.00725   0.00722   0.01504  -0.00152  -0.00070  -0.00016
C17       0.00614   0.01083   0.01593  -0.00317  -0.00281  -0.00080
C13       0.00837   0.01299   0.01239   0.00063  -0.00281   0.00000
C14       0.01060   0.01372   0.01947  -0.00317  -0.00141  -0.00240
C18       0.00893   0.01155   0.01150   0.00000  -0.00281   0.00160
C16       0.01116   0.01083   0.02389   0.00254  -0.00773  -0.00160
C15       0.01283   0.01444   0.02566   0.00254  -0.01054  -0.00240
O3        0.00948   0.01732   0.04336  -0.00057  -0.00632  -0.00080
O10       0.00725   0.01732   0.02212   0.00044   0.00126   0.00440
O9        0.00446   0.01877   0.03009   0.00286   0.00098   0.00464
O7        0.00558   0.03465   0.03894   0.00508  -0.00351   0.00080
O2        0.00558   0.02526   0.01504   0.00432  -0.00035   0.00456
O11       0.01116   0.01372   0.02301  -0.00057  -0.00035  -0.00000
O12       0.00948   0.01516   0.02478  -0.00178  -0.00056  -0.00336
O1        0.01060   0.02310   0.01327  -0.00114  -0.00281  -0.00408
O4        0.02008   0.01227   0.03894  -0.00635  -0.01054   0.00240
O8        0.01729   0.02887   0.02566   0.00825  -0.00843  -0.00160
O6        0.02511   0.02310   0.05221   0.00063  -0.02319   0.00320
O5        0.03794   0.00866   0.05398   0.00635  -0.03092  -0.00719
loop_
_geom_bond_atom_site_label_1
_geom_bond_atom_site_label_2
_geom_bond_distance
_geom_bond_site_symmetry_2
_ccdc_geom_bond_type
C3     N3      1.345   .     S
C3     C4      1.420   .     D
C3     C2      1.459   .     S
C5     N6      1.351   .     D
C5     C6      1.418   .     S
C5     C4      1.464   .     S
C4     N4      1.354   .     S
C1     N1      1.347   .     S
C1     C2      1.402   .     D
C1     C6      1.453   .     S
C6     N5      1.344   .     D
C2     N2      1.347   .     S
C8     N1      1.342   .     D
C8     C7      1.430   .     S
C8     C13     1.541   .     S
C7     N2      1.346   .     D
C7     C14     1.546   .     S
N4     C10     1.346   .     D
N3     C9      1.336   .     D
C11    N6      1.342   .     S
C11    C12     1.426   .     D
C11    C18     1.501   .     S
C12    N5      1.338   .     S
C12    C17     1.525   .     S
C10    C9      1.420   .     S
C10    C16     1.517   .     S
C9     C15     1.527   .     S
C17    O9      1.266   .     D
C17    O10     1.265   .     S
C13    O1      1.275   .     S
C13    O2      1.260   .     D
C14    O3      1.271   .     S
C14    O4      1.263   .     D
C18    O11     1.344   .     S
C18    O12     1.232   .     D
C16    O8      1.279   .     S
C16    O7      1.254   .     D
C15    O6      1.271   .     S
C15    O5      1.273   .     D
O3     K38     2.633   4_554 S
O10    K40     3.708   4_554 S
O11    H42     0.990   4_554 S
O1     K39     3.985   4_554 S
O8     K41     3.797   4_554 S
O6     K37     2.739   4_554 S
K37    O6      2.739   4_455 S
K38    O3      2.633   4_455 S
K39    O1      3.985   4_455 S
K40    O10     3.708   4_455 S
K41    O8      3.797   4_455 S
H42    O11     0.990   4_455 S
